<configuration>
    <input>
        <net-file value="net.net.xml"/>
        <route-files value="route.rou.xml"/>
    </input>
    <time>
        <begin value="0"/>
        <end value="200"/>
    </time>
</configuration>